wipe
model BasicBuilder -ndm 2 -ndf 2

node 1 0 0
node 2 1 0

# uniaxialMaterial Steel02 1 10 100000 .05 15 .925 .15
uniaxialMaterial Elastic 1 100

element truss 1 1 2 0.1 1

mass 2 10 10

fix 1 1 1
fix 2 0 1

timeSeries Path 1 -dt .02 -values {0.0 0.0 -0.1080 -0.1010 -0.0880 -0.0950 -0.1200 -0.1420 -0.1280 -0.1100 -0.0850 -0.0850 -0.1310 -0.1761 -0.1941 -0.1621 -0.1440 -0.1080 -0.0820 -0.0420 -0.0660 -0.1310 -0.1901 -0.1961 -0.0660 0.0300 0.1410 -0.0490 -0.1280 -0.1440 -0.2031 -0.2601 -0.3251 -0.3061 -0.1721 -0.1971 -0.1631 -0.1641 -0.0670 0.0250 0.1500 0.2361 0.2521 0.3361 0.4632 0.4922 0.4191 0.3591 

pattern UniformExcitation 1 1 -accel 1  -fact 10

constraints Plain
numberer Plain
algorithm Newton
system LeeSparse
integrator LeeNewmarkFullKC 0.5 0.25 -type0 1 .05 -type1 10 .03 3
analysis Transient

#analysis Transient
test NormDispIncr 1E-12 20 1

analyze 100 0.02